Version 4
SHEET 1 1788 1060
WIRE 80 -160 -96 -160
WIRE 240 -160 80 -160
WIRE 368 -160 240 -160
WIRE 464 -160 368 -160
WIRE 464 -80 464 -160
WIRE 240 -16 240 -160
WIRE 464 16 464 0
WIRE 368 80 368 -160
WIRE -208 112 -352 112
WIRE 144 112 -208 112
WIRE 240 144 240 64
WIRE -352 176 -352 112
WIRE 144 208 144 112
WIRE 192 208 144 208
WIRE 368 208 368 160
WIRE 368 208 288 208
WIRE -96 288 -96 -160
WIRE -16 288 -96 288
WIRE 240 288 64 288
WIRE -352 304 -352 256
WIRE 368 304 368 208
WIRE 240 336 240 288
WIRE -96 400 -96 288
WIRE 144 400 144 208
WIRE 192 400 144 400
WIRE 368 400 368 304
WIRE 368 400 288 400
WIRE 80 448 80 -160
WIRE 0 480 -48 480
WIRE 368 512 368 400
WIRE 368 512 256 512
WIRE 0 544 0 480
WIRE 80 544 80 528
WIRE 80 544 0 544
WIRE 160 544 80 544
WIRE 368 560 368 512
WIRE 256 624 256 512
WIRE 256 624 208 624
WIRE -96 768 -96 496
WIRE 160 768 160 640
WIRE 160 768 -96 768
WIRE 176 768 160 768
WIRE 368 768 368 624
WIRE 368 768 176 768
WIRE 176 832 176 768
FLAG 464 16 0
FLAG 176 832 0
FLAG -352 304 0
FLAG -208 112 I2C1
FLAG 368 304 I2C2
SYMBOL res 256 80 R180
WINDOW 0 36 76 Left 2
WINDOW 3 36 40 Left 2
SYMATTR InstName R1
SYMATTR Value 10k
SYMBOL res 384 176 R180
WINDOW 0 36 76 Left 2
WINDOW 3 36 40 Left 2
SYMATTR InstName R2
SYMATTR Value 10k
SYMBOL voltage 464 -96 R0
WINDOW 123 0 0 Left 0
WINDOW 39 0 0 Left 0
SYMATTR InstName V1
SYMATTR Value 3.3
SYMBOL npn 288 336 R90
SYMATTR InstName Q2
SYMATTR Value BC847C
SYMBOL npn 192 144 M90
SYMATTR InstName Q1
SYMATTR Value BC547C
SYMBOL res 80 272 R90
WINDOW 0 0 56 VBottom 2
WINDOW 3 32 56 VTop 2
SYMATTR InstName R3
SYMATTR Value 680
SYMBOL nmos -48 400 M0
SYMATTR InstName M1
SYMATTR Value BSS138DWQ
SYMATTR Prefix X
SYMBOL nmos 208 544 M0
SYMATTR InstName M2
SYMATTR Value BSS138DWQ
SYMATTR Prefix X
SYMBOL cap 352 560 R0
SYMATTR InstName C1
SYMATTR Value 10n
SYMBOL res 64 432 R0
SYMATTR InstName R4
SYMATTR Value 10k
SYMBOL voltage -352 160 R0
WINDOW 123 0 0 Left 0
WINDOW 39 0 0 Left 0
SYMATTR InstName V2
SYMATTR Value PULSE(0 5 0 10n 10n {T} 2*{T} 1/{f})
TEXT 712 432 Left 2 !.include BSS138DWQ.spice.txt
TEXT 728 592 Left 2 !.step param T 1m 1u -1u
TEXT -386 856 Left 2 !.tran 1
